Circuit: * D:\Hankamp Gears B.V\Studenten Hankamp Rehab - Documenten\[SHA] SHARE\Design\Control System\Electrical Design\Control system simulation.asc

Limiting rise time of source v4 to 0.05
Limiting fall time of source v4 to 0.05
Limiting rise time of source v1 to 0.1
Limiting fall time of source v1 to 0.1
Direct Newton iteration for .op point succeeded.

Date: Mon Jan 31 14:27:19 2022
Total elapsed time: 0.232 seconds.

tnom = 27
temp = 27
method = modified trap
totiter = 2656
traniter = 2641
tranpoints = 853
accept = 631
rejected = 222
matrix size = 35
fillins = 2
solver = Normal
Matrix Compiler1: 2.21 KB object code size  1.0/0.4/[0.2]
Matrix Compiler2: 2.80 KB object code size  0.3/0.4/[0.2]

